  Page 1                                             30/10/2024 18:07:23
  **********************************************************************
  *                             E P A N E T                            *
  *                     Hydraulic and Water Quality                    *
  *                     Analysis for Pipe Networks                     *
  *                           Version 2.2                              *
  **********************************************************************
  
  Input File: any-town.inp
  
  Any Town Model. Initial model for ANN training
  Tank levels unlimited. Optimisated results
  
  Link - Node Table:
  ----------------------------------------------------------------------
  Link           Start          End                Length  Diameter
  ID             Node           Node                    m        mm
  ----------------------------------------------------------------------
  4              20             30                 3657.6     609.6
  30             30             60                 1828.8       508
  16             60             90                 1828.8     152.4
  14             70             60                 1828.8     406.4
  12             70             90                 1828.8       254
  2              20             70                 3657.6     609.6
  6              20             110                3657.6     457.2
  48             110            100                1828.8     304.8
  24             100            90                 1828.8       508
  10             70             100                1828.8     609.6
  32             30             40                 1828.8     203.2
  36             40             50                 1828.8     304.8
  38             50             80                 1828.8     203.2
  18             80             60                 1828.8     457.2
  20             80             90                 1828.8     406.4
  66             50             140                3657.6     203.2
  40             140            80                 1828.8     304.8
  28             80             150                1828.8     457.2
  22             150            90                 1828.8     152.4
  26             150            100                1828.8     609.6
  42             150            140                1828.8       508
  64             140            170                3657.6     304.8
  60             170            130                1828.8     304.8
  58             130            160                1828.8     406.4
  44             160            150                1828.8     355.6
  50             160            110                1828.8     304.8
  52             110            120                1828.8     355.6
  56             120            130                1828.8     304.8
  62             140            160                1828.8       508
  46             100            160                1828.8     457.2
  34             50             30                 2743.2     355.6
  78             65             60                  30.48       508
  80             165            160                 30.48     406.4
  8              70             30                 2743.2     355.6
  74             50             55                 1828.8     304.8
  76             55             75                 1828.8     304.8


  Page 2                  Any Town Model. Initial model for ANN training
  Link - Node Table: (continued)
  ----------------------------------------------------------------------
  Link           Start          End                Length  Diameter
  ID             Node           Node                    m        mm
  ----------------------------------------------------------------------
  72             75             115                1828.8     304.8
  68             115            140                1828.8     304.8
  70             75             140                1828.8     304.8
  178            140            265                 30.48     406.4
  54             160            120                2743.2     304.8
  222            10             20                   #N/A      #N/A Pump
  111            10             20                   #N/A      #N/A Pump
  333            10             20                   #N/A      #N/A Pump
  
  Energy Usage:
  ----------------------------------------------------------------------
                    Usage   Avg.     Kw-hr      Avg.      Peak      Cost
  Pump             Factor Effic.     /m3        Kw        Kw      /day
  ----------------------------------------------------------------------
  222               29.17  57.26      0.35    436.56    454.92  93110.66
  111               75.00  55.64      0.35    460.78    518.23 241845.56
  333                8.33  57.51      0.35    432.52    447.98  22910.37
  ----------------------------------------------------------------------
                                                Demand Charge:      0.00
                                                Total Cost:    357866.59
  
  Node Results at 0:00 Hrs:
  ----------------------------------------------------------------------
  Node                Demand      Head  Pressure   Quality
  ID                     CMH         m         m          
  ----------------------------------------------------------------------
  20                   79.49     69.60     63.50      0.00
  30                   31.80     67.82     52.58      0.00
  110                  79.49     67.42     52.18      0.00
  70                   79.49     67.51     52.27      0.00
  60                   79.49     66.95     51.71      0.00
  90                  158.99     66.93     51.69      0.00
  100                  79.49     67.05     51.81      0.00
  40                   31.80     67.11     51.87      0.00
  50                   31.80     67.11     51.87      0.00
  80                   79.49     66.93     51.69      0.00
  150                  31.80     66.96     30.39      0.00
  140                  31.80     66.93     42.55      0.00
  170                  31.80     66.87     30.29      0.00
  130                  31.80     66.92     30.34      0.00
  160                 127.19     66.93     30.35      0.00
  120                  31.80     67.03     30.46      0.00
  55                   15.90     66.97     42.58      0.00
  75                   15.90     66.92     42.54      0.00
  115                  15.90     66.92     42.53      0.00
  10                -1470.84      3.05      0.00      0.00 Reservoir
  65                  358.03     66.93     66.93      0.00 Tank


  Page 3                  Any Town Model. Initial model for ANN training
  Node Results at 0:00 Hrs: (continued)
  ----------------------------------------------------------------------
  Node                Demand      Head  Pressure   Quality
  ID                     CMH         m         m          
  ----------------------------------------------------------------------
  165                  34.92     66.93     66.93      0.00 Tank
  265                  12.67     66.93     66.93      0.00 Tank
  
  Link Results at 0:00 Hrs:
  ----------------------------------------------------------------------
  Link                  Flow  VelocityUnit Headloss    Status
  ID                     CMH       m/s      m/km
  ----------------------------------------------------------------------
  4                   532.75      0.51      0.49      Open
  30                  325.39      0.45      0.48      Open
  16                    1.64      0.02      0.01      Open
  14                  143.23      0.31      0.31      Open
  12                   42.28      0.23      0.32      Open
  2                   580.23      0.55      0.57      Open
  6                   278.36      0.47      0.59      Open
  48                   53.85      0.20      0.20      Open
  24                  111.44      0.15      0.07      Open
  10                  373.38      0.36      0.25      Open
  32                   26.18      0.22      0.39      Open
  36                   -5.62      0.02      0.00      Open
  38                   12.60      0.11      0.10      Open
  18                  -29.45      0.05      0.01      Open
  20                    1.32      0.00      0.00      Open
  66                    8.68      0.07      0.05      Open
  40                   -2.76      0.01      0.00      Open
  28                  -41.52      0.07      0.02      Open
  22                    2.31      0.04      0.02      Open
  26                 -151.98      0.14      0.05      Open
  42                   55.02      0.08      0.02      Open
  64                   14.09      0.05      0.02      Open
  60                  -17.71      0.07      0.03      Open
  58                  -20.46      0.04      0.01      Open
  44                  -21.33      0.06      0.02      Open
  50                  -62.51      0.24      0.27      Open
  52                   82.51      0.23      0.21      Open
  56                   29.05      0.11      0.07      Open
  62                   -7.25      0.01      0.00      Open
  46                   84.31      0.14      0.07      Open
  34                  -91.24      0.26      0.26      Open
  78                 -358.03      0.49      0.57      Open
  80                  -34.92      0.07      0.02      Open
  8                   -58.15      0.16      0.11      Open
  74                   32.54      0.12      0.08      Open
  76                   16.64      0.06      0.02      Open
  72                    6.69      0.03      0.00      Open
  68                   -9.21      0.04      0.01      Open
  70                   -5.95      0.02      0.00      Open


  Page 4                  Any Town Model. Initial model for ANN training
  Link Results at 0:00 Hrs: (continued)
  ----------------------------------------------------------------------
  Link                  Flow  VelocityUnit Headloss    Status
  ID                     CMH       m/s      m/km
  ----------------------------------------------------------------------
  178                  12.67      0.03      0.00      Open
  54                  -21.67      0.08      0.04      Open
  222                   0.00      0.00      0.00    Closed Pump
  111                1470.84      0.00    -66.55      Open Pump
  333                   0.00      0.00      0.00    Closed Pump
  
  Node Results at 1:00 Hrs:
  ----------------------------------------------------------------------
  Node                Demand      Head  Pressure   Quality
  ID                     CMH         m         m          
  ----------------------------------------------------------------------
  20                   79.49     75.58     69.49      0.00
  30                   31.80     70.46     55.22      0.00
  110                  79.49     69.33     54.09      0.00
  70                   79.49     69.54     54.30      0.00
  60                   79.49     67.72     52.48      0.00
  90                  158.99     67.79     52.55      0.00
  100                  79.49     68.02     52.78      0.00
  40                   31.80     68.60     53.36      0.00
  50                   31.80     68.58     53.34      0.00
  80                   79.49     67.66     52.42      0.00
  150                  31.80     67.65     31.07      0.00
  140                  31.80     67.20     42.81      0.00
  170                  31.80     67.13     30.56      0.00
  130                  31.80     67.18     30.61      0.00
  160                 127.19     67.16     30.58      0.00
  120                  31.80     67.87     31.30      0.00
  55                   15.90     67.80     43.42      0.00
  75                   15.90     67.28     42.90      0.00
  115                  15.90     67.20     42.82      0.00
  10                -2544.36      3.05      0.00      0.00 Reservoir
  65                  740.25     67.66     67.66      0.00 Tank
  165                 495.04     67.07     67.07      0.00 Tank
  265                 243.84     67.17     67.17      0.00 Tank
  
  Link Results at 1:00 Hrs:
  ----------------------------------------------------------------------
  Link                  Flow  VelocityUnit Headloss    Status
  ID                     CMH       m/s      m/km
  ----------------------------------------------------------------------
  4                   942.02      0.90      1.40      Open
  30                  604.92      0.83      1.50      Open
  16                   -7.43      0.11      0.03      Open
  14                  269.36      0.58      0.99      Open
  12                   76.75      0.42      0.96      Open
  2                  1030.32      0.98      1.65      Open
  6                   492.52      0.83      1.71      Open


  Page 5                  Any Town Model. Initial model for ANN training
  Link Results at 1:00 Hrs: (continued)
  ----------------------------------------------------------------------
  Link                  Flow  VelocityUnit Headloss    Status
  ID                     CMH       m/s      m/km
  ----------------------------------------------------------------------
  48                  105.85      0.40      0.71      Open
  24                  159.97      0.22      0.13      Open
  10                  710.49      0.68      0.83      Open
  32                   44.09      0.38      1.02      Open
  36                   12.30      0.05      0.01      Open
  38                   30.17      0.26      0.50      Open
  18                  -61.97      0.10      0.04      Open
  20                  -65.24      0.14      0.07      Open
  66                   25.82      0.22      0.38      Open
  40                  -60.22      0.23      0.25      Open
  28                   17.67      0.03      0.00      Open
  22                   -5.06      0.08      0.07      Open
  26                 -331.65      0.32      0.20      Open
  42                  229.17      0.31      0.25      Open
  64                   13.93      0.05      0.02      Open
  60                  -17.87      0.07      0.03      Open
  58                   25.34      0.05      0.01      Open
  44                  -93.41      0.26      0.27      Open
  50                 -139.06      0.53      1.18      Open
  52                  168.12      0.47      0.79      Open
  56                   75.00      0.29      0.38      Open
  62                   57.87      0.08      0.02      Open
  46                  245.22      0.41      0.47      Open
  34                 -155.43      0.43      0.69      Open
  78                 -740.25      1.01      2.18      Open
  80                 -495.04      1.06      3.06      Open
  8                  -105.77      0.30      0.34      Open
  74                   79.94      0.30      0.42      Open
  76                   64.04      0.24      0.28      Open
  72                   23.33      0.09      0.04      Open
  68                    7.43      0.03      0.01      Open
  70                   24.81      0.09      0.05      Open
  178                 243.84      0.52      0.83      Open
  54                  -61.32      0.23      0.26      Open
  222                1272.18      0.00    -72.53      Open Pump
  111                1272.18      0.00    -72.53      Open Pump
  333                   0.00      0.00      0.00    Closed Pump
  


  Page 6                  Any Town Model. Initial model for ANN training
  Node Results at 2:00 Hrs:
  ----------------------------------------------------------------------
  Node                Demand      Head  Pressure   Quality
  ID                     CMH         m         m          
  ----------------------------------------------------------------------
  20                   79.49     71.41     65.32      0.00
  30                   31.80     69.94     54.70      0.00
  110                  79.49     68.94     53.70      0.00
  70                   79.49     69.48     54.24      0.00
  60                   79.49     69.48     54.24      0.00
  90                  158.99     68.65     53.41      0.00
  100                  79.49     68.70     53.46      0.00
  40                   31.80     68.86     53.62      0.00
  50                   31.80     68.86     53.62      0.00
  80                   79.49     68.68     53.44      0.00
  150                  31.80     68.55     31.98      0.00
  140                  31.80     68.26     43.87      0.00
  170                  31.80     68.16     31.59      0.00
  130                  31.80     68.20     31.62      0.00
  160                 127.19     68.20     31.62      0.00
  120                  31.80     68.39     31.81      0.00
  55                   15.90     68.48     44.10      0.00
  75                   15.90     68.28     43.89      0.00
  115                  15.90     68.25     43.87      0.00
  10                -1415.62      3.05      0.00      0.00 Reservoir
  65                  -97.83     69.48     69.48      0.00 Tank
  165                 309.99     68.16     68.16      0.00 Tank
  265                 138.25     68.25     68.25      0.00 Tank
  
  Link Results at 2:00 Hrs:
  ----------------------------------------------------------------------
  Link                  Flow  VelocityUnit Headloss    Status
  ID                     CMH       m/s      m/km
  ----------------------------------------------------------------------
  4                   481.15      0.46      0.40      Open
  30                  229.64      0.31      0.25      Open
  16                   13.39      0.20      0.45      Open
  14                    2.20      0.00      0.00      Open
  12                   51.33      0.28      0.45      Open
  2                   556.41      0.53      0.53      Open
  6                   298.57      0.51      0.68      Open
  48                   41.88      0.16      0.13      Open
  24                   71.35      0.10      0.03      Open
  10                  495.59      0.47      0.43      Open
  32                   32.77      0.28      0.59      Open
  36                    0.98      0.00      0.00      Open
  38                   12.75      0.11      0.10      Open
  18                 -236.78      0.40      0.44      Open
  20                   27.11      0.06      0.01      Open
  66                   16.55      0.14      0.17      Open
  40                  -57.30      0.22      0.23      Open
  28                   85.63      0.14      0.07      Open


  Page 7                  Any Town Model. Initial model for ANN training
  Link Results at 2:00 Hrs: (continued)
  ----------------------------------------------------------------------
  Link                  Flow  VelocityUnit Headloss    Status
  ID                     CMH       m/s      m/km
  ----------------------------------------------------------------------
  22                   -4.19      0.06      0.05      Open
  26                 -202.81      0.19      0.08      Open
  42                  182.27      0.25      0.16      Open
  64                   17.49      0.07      0.03      Open
  60                  -14.31      0.05      0.02      Open
  58                   -8.47      0.02      0.00      Open
  44                  -78.56      0.22      0.19      Open
  50                  -77.78      0.30      0.40      Open
  52                   99.41      0.28      0.30      Open
  56                   37.63      0.14      0.11      Open
  62                   75.51      0.10      0.03      Open
  46                  183.82      0.31      0.28      Open
  34                 -114.74      0.32      0.39      Open
  78                   97.83      0.13      0.05      Open
  80                 -309.99      0.66      1.29      Open
  8                   -72.20      0.20      0.17      Open
  74                   54.62      0.21      0.21      Open
  76                   38.72      0.15      0.11      Open
  72                   11.86      0.05      0.01      Open
  68                   -4.04      0.02      0.00      Open
  70                   10.96      0.04      0.01      Open
  178                 138.25      0.30      0.29      Open
  54                  -29.98      0.11      0.07      Open
  222                   0.00      0.00      0.00    Closed Pump
  111                1415.62      0.00    -68.37      Open Pump
  333                   0.00      0.00      0.00    Closed Pump
  
  Node Results at 3:00 Hrs:
  ----------------------------------------------------------------------
  Node                Demand      Head  Pressure   Quality
  ID                     CMH         m         m          
  ----------------------------------------------------------------------
  20                   68.14     76.84     70.74      0.00
  30                   27.25     72.05     56.81      0.00
  110                  68.14     70.93     55.69      0.00
  70                   68.14     71.16     55.92      0.00
  60                   68.14     69.46     54.22      0.00
  90                  136.27     69.50     54.26      0.00
  100                  68.14     69.70     54.46      0.00
  40                   27.25     70.34     55.10      0.00
  50                   27.25     70.30     55.06      0.00
  80                   68.14     69.37     54.13      0.00
  150                  27.25     69.34     32.77      0.00
  140                  27.25     68.87     44.49      0.00
  170                  27.25     68.78     32.20      0.00
  130                  27.25     68.79     32.22      0.00
  160                 109.02     68.74     32.17      0.00


  Page 8                  Any Town Model. Initial model for ANN training
  Node Results at 3:00 Hrs: (continued)
  ----------------------------------------------------------------------
  Node                Demand      Head  Pressure   Quality
  ID                     CMH         m         m          
  ----------------------------------------------------------------------
  120                  27.25     69.50     32.93      0.00
  55                   13.63     69.53     45.14      0.00
  75                   13.63     68.98     44.60      0.00
  115                  13.63     68.89     44.51      0.00
  10                -2450.64      3.05      0.00      0.00 Reservoir
  65                  722.77     69.39     69.39      0.00 Tank
  165                 611.87     68.60     68.60      0.00 Tank
  265                 202.96     68.85     68.85      0.00 Tank
  
  Link Results at 3:00 Hrs:
  ----------------------------------------------------------------------
  Link                  Flow  VelocityUnit Headloss    Status
  ID                     CMH       m/s      m/km
  ----------------------------------------------------------------------
  4                   908.83      0.86      1.31      Open
  30                  586.89      0.80      1.42      Open
  16                  -16.34      0.25      0.02      Open
  14                  260.31      0.56      0.93      Open
  12                   74.68      0.41      0.91      Open
  2                   996.20      0.95      1.55      Open
  6                   477.47      0.81      1.61      Open
  48                  102.72      0.39      0.68      Open
  24                  147.89      0.20      0.11      Open
  10                  696.58      0.66      0.80      Open
  32                   42.12      0.36      0.94      Open
  36                   14.87      0.06      0.02      Open
  38                   30.43      0.26      0.51      Open
  18                  -72.64      0.12      0.05      Open
  20                  -64.56      0.14      0.07      Open
  66                   26.35      0.23      0.39      Open
  40                  -62.89      0.24      0.27      Open
  28                   36.61      0.06      0.01      Open
  22                   -5.39      0.08      0.08      Open
  26                 -323.86      0.31      0.19      Open
  42                  234.36      0.32      0.26      Open
  64                   17.39      0.07      0.03      Open
  60                   -9.87      0.04      0.01      Open
  58                   38.94      0.08      0.03      Open
  44                 -104.25      0.29      0.33      Open
  50                 -139.88      0.53      1.20      Open
  52                  166.73      0.47      0.78      Open
  56                   76.06      0.29      0.39      Open
  62                  114.99      0.16      0.07      Open
  46                  259.41      0.44      0.52      Open
  34                 -149.05      0.42      0.64      Open
  78                 -722.77      0.99      2.08      Open
  80                 -611.87      1.31      4.54      Open


  Page 9                  Any Town Model. Initial model for ANN training
  Link Results at 3:00 Hrs: (continued)
  ----------------------------------------------------------------------
  Link                  Flow  VelocityUnit Headloss    Status
  ID                     CMH       m/s      m/km
  ----------------------------------------------------------------------
  8                  -103.51      0.29      0.32      Open
  74                   79.88      0.30      0.42      Open
  76                   66.25      0.25      0.30      Open
  72                   24.85      0.09      0.05      Open
  68                   11.22      0.04      0.01      Open
  70                   27.78      0.11      0.06      Open
  178                 202.96      0.43      0.59      Open
  54                  -63.42      0.24      0.28      Open
  222                1225.32      0.00    -73.79      Open Pump
  111                1225.32      0.00    -73.79      Open Pump
  333                   0.00      0.00      0.00    Closed Pump
  
  Node Results at 4:00 Hrs:
  ----------------------------------------------------------------------
  Node                Demand      Head  Pressure   Quality
  ID                     CMH         m         m          
  ----------------------------------------------------------------------
  20                   68.14     73.03     66.93      0.00
  30                   27.25     71.63     56.39      0.00
  110                  68.14     70.69     55.45      0.00
  70                   68.14     71.19     55.95      0.00
  60                   68.14     71.18     55.94      0.00
  90                  136.27     70.42     55.18      0.00
  100                  68.14     70.45     55.21      0.00
  40                   27.25     70.64     55.40      0.00
  50                   27.25     70.64     55.40      0.00
  80                   68.14     70.44     55.20      0.00
  150                  27.25     70.30     33.72      0.00
  140                  27.25     69.97     45.59      0.00
  170                  27.25     69.89     33.32      0.00
  130                  27.25     69.92     33.34      0.00
  160                 109.02     69.92     33.34      0.00
  120                  27.25     70.13     33.56      0.00
  55                   13.63     70.24     45.86      0.00
  75                   13.63     70.00     45.62      0.00
  115                  13.63     69.97     45.59      0.00
  10                -1366.48      3.05      0.00      0.00 Reservoir
  65                  -66.56     71.18     71.18      0.00 Tank
  165                 348.75     69.87     69.87      0.00 Tank
  265                 171.25     69.96     69.96      0.00 Tank
  


  Page 10                 Any Town Model. Initial model for ANN training
  Link Results at 4:00 Hrs:
  ----------------------------------------------------------------------
  Link                  Flow  VelocityUnit Headloss    Status
  ID                     CMH       m/s      m/km
  ----------------------------------------------------------------------
  4                   467.08      0.44      0.38      Open
  30                  227.68      0.31      0.25      Open
  16                   12.80      0.19      0.42      Open
  14                   14.15      0.03      0.00      Open
  12                   49.32      0.27      0.42      Open
  2                   541.65      0.52      0.50      Open
  6                   289.61      0.49      0.64      Open
  48                   41.88      0.16      0.13      Open
  24                   57.47      0.08      0.02      Open
  10                  480.97      0.46      0.40      Open
  32                   31.34      0.27      0.54      Open
  36                    4.08      0.02      0.00      Open
  38                   13.38      0.11      0.11      Open
  18                 -227.45      0.38      0.41      Open
  20                   21.38      0.05      0.01      Open
  66                   17.48      0.15      0.18      Open
  40                  -60.67      0.23      0.26      Open
  28                   90.63      0.15      0.07      Open
  22                   -4.70      0.07      0.07      Open
  26                 -206.84      0.20      0.08      Open
  42                  193.02      0.26      0.18      Open
  64                   15.58      0.06      0.02      Open
  60                  -11.68      0.04      0.01      Open
  58                    1.35      0.00      0.00      Open
  44                  -81.89      0.23      0.21      Open
  50                  -79.69      0.30      0.42      Open
  52                   99.90      0.28      0.30      Open
  56                   40.28      0.15      0.12      Open
  62                   72.07      0.10      0.03      Open
  46                  190.40      0.32      0.29      Open
  34                 -109.89      0.31      0.36      Open
  78                   66.56      0.09      0.03      Open
  80                 -348.75      0.75      1.60      Open
  8                   -70.92      0.20      0.16      Open
  74                   55.86      0.21      0.22      Open
  76                   42.24      0.16      0.13      Open
  72                   14.29      0.05      0.02      Open
  68                    0.66      0.00      0.00      Open
  70                   14.32      0.05      0.02      Open
  178                 171.25      0.37      0.43      Open
  54                  -32.37      0.12      0.08      Open
  222                   0.00      0.00      0.00    Closed Pump
  111                1366.48      0.00    -69.98      Open Pump
  333                   0.00      0.00      0.00    Closed Pump
  


  Page 11                 Any Town Model. Initial model for ANN training
  Node Results at 5:00 Hrs:
  ----------------------------------------------------------------------
  Node                Demand      Head  Pressure   Quality
  ID                     CMH         m         m          
  ----------------------------------------------------------------------
  20                   68.14     73.22     67.13      0.00
  30                   27.25     71.77     56.53      0.00
  110                  68.14     71.11     55.87      0.00
  70                   68.14     71.40     56.16      0.00
  60                   68.14     71.18     55.94      0.00
  90                  136.27     70.80     55.56      0.00
  100                  68.14     70.85     55.61      0.00
  40                   27.25     71.01     55.77      0.00
  50                   27.25     71.01     55.77      0.00
  80                   68.14     70.81     55.57      0.00
  150                  27.25     70.76     34.19      0.00
  140                  27.25     70.65     46.26      0.00
  170                  27.25     70.47     33.90      0.00
  130                  27.25     70.48     33.90      0.00
  160                 109.02     70.47     33.90      0.00
  120                  27.25     70.65     34.07      0.00
  55                   13.63     70.77     46.39      0.00
  75                   13.63     70.66     46.27      0.00
  115                  13.63     70.64     46.26      0.00
  10                -1360.06      3.05      0.00      0.00 Reservoir
  65                  117.22     71.18     71.18      0.00 Tank
  165                 360.68     70.42     70.42      0.00 Tank
  265                 -30.88     70.65     70.65      0.00 Tank
  
  Link Results at 5:00 Hrs:
  ----------------------------------------------------------------------
  Link                  Flow  VelocityUnit Headloss    Status
  ID                     CMH       m/s      m/km
  ----------------------------------------------------------------------
  4                   477.74      0.45      0.40      Open
  30                  263.63      0.36      0.32      Open
  16                    8.75      0.13      0.21      Open
  14                   85.73      0.18      0.12      Open
  12                   42.87      0.24      0.33      Open
  2                   539.95      0.51      0.50      Open
  6                   274.23      0.46      0.58      Open
  48                   43.78      0.17      0.14      Open
  24                   71.65      0.10      0.03      Open
  10                  407.79      0.39      0.30      Open
  32                   27.17      0.23      0.42      Open
  36                   -0.08      0.00      0.00      Open
  38                   13.15      0.11      0.11      Open
  18                 -155.25      0.26      0.20      Open
  20                   15.50      0.03      0.01      Open
  66                   12.49      0.11      0.10      Open
  40                  -34.25      0.13      0.09      Open
  28                   50.51      0.09      0.03      Open


  Page 12                 Any Town Model. Initial model for ANN training
  Link Results at 5:00 Hrs: (continued)
  ----------------------------------------------------------------------
  Link                  Flow  VelocityUnit Headloss    Status
  ID                     CMH       m/s      m/km
  ----------------------------------------------------------------------
  22                   -2.49      0.04      0.02      Open
  26                 -154.15      0.15      0.05      Open
  42                  109.53      0.15      0.06      Open
  64                   24.53      0.09      0.05      Open
  60                   -2.73      0.01      0.00      Open
  58                    5.14      0.01      0.00      Open
  44                  -70.37      0.20      0.16      Open
  50                  -71.62      0.27      0.35      Open
  52                   90.70      0.25      0.25      Open
  56                   35.12      0.13      0.09      Open
  62                  136.62      0.19      0.10      Open
  46                  157.63      0.27      0.21      Open
  34                  -95.11      0.27      0.28      Open
  78                 -117.22      0.16      0.07      Open
  80                 -360.68      0.77      1.70      Open
  8                   -64.57      0.18      0.14      Open
  74                   42.13      0.16      0.13      Open
  76                   28.51      0.11      0.06      Open
  72                    8.46      0.03      0.01      Open
  68                   -5.17      0.02      0.00      Open
  70                    6.42      0.02      0.00      Open
  178                 -30.88      0.07      0.02      Open
  54                  -28.32      0.11      0.06      Open
  222                   0.00      0.00      0.00    Closed Pump
  111                1360.06      0.00    -70.18      Open Pump
  333                   0.00      0.00      0.00    Closed Pump
  
  Node Results at 6:00 Hrs:
  ----------------------------------------------------------------------
  Node                Demand      Head  Pressure   Quality
  ID                     CMH         m         m          
  ----------------------------------------------------------------------
  20                  136.27     73.15     67.05      0.00
  30                   54.51     71.87     56.63      0.00
  110                 136.27     71.07     55.83      0.00
  70                  136.27     71.52     56.28      0.00
  60                  136.27     71.52     56.28      0.00
  90                  272.55     70.84     55.60      0.00
  100                 136.27     71.01     55.77      0.00
  40                   54.51     70.94     55.70      0.00
  50                   54.51     71.02     55.78      0.00
  80                  136.27     71.00     55.76      0.00
  150                  54.51     71.00     34.43      0.00
  140                  54.51     71.08     46.69      0.00
  170                  54.51     70.68     34.10      0.00
  130                  54.51     70.72     34.15      0.00
  160                 218.04     70.80     34.22      0.00


  Page 13                 Any Town Model. Initial model for ANN training
  Node Results at 6:00 Hrs: (continued)
  ----------------------------------------------------------------------
  Node                Demand      Head  Pressure   Quality
  ID                     CMH         m         m          
  ----------------------------------------------------------------------
  120                  54.51     70.79     34.21      0.00
  55                   27.25     70.95     46.56      0.00
  75                   27.25     70.95     46.57      0.00
  115                  27.25     70.95     46.57      0.00
  10                -1362.80      3.05      0.00      0.00 Reservoir
  65                 -141.27     71.52     71.52      0.00 Tank
  165                 118.10     70.79     70.79      0.00 Tank
  265                -440.11     71.15     71.15      0.00 Tank
  
  Link Results at 6:00 Hrs:
  ----------------------------------------------------------------------
  Link                  Flow  VelocityUnit Headloss    Status
  ID                     CMH       m/s      m/km
  ----------------------------------------------------------------------
  4                   446.46      0.42      0.35      Open
  30                  198.49      0.27      0.19      Open
  16                   12.02      0.18      0.37      Open
  14                   -5.46      0.01      0.00      Open
  12                   46.04      0.25      0.37      Open
  2                   508.36      0.48      0.45      Open
  6                   271.70      0.46      0.57      Open
  48                   20.83      0.08      0.04      Open
  24                  134.90      0.18      0.09      Open
  10                  394.05      0.38      0.28      Open
  32                   30.29      0.26      0.51      Open
  36                  -24.22      0.09      0.05      Open
  38                    3.83      0.03      0.01      Open
  18                 -186.00      0.31      0.28      Open
  20                   73.99      0.16      0.09      Open
  66                   -4.46      0.04      0.01      Open
  40                   22.39      0.09      0.04      Open
  28                    1.95      0.00      0.00      Open
  22                    5.61      0.09      0.09      Open
  26                  -30.20      0.03      0.00      Open
  42                  -85.89      0.12      0.04      Open
  64                   38.18      0.15      0.11      Open
  60                  -16.33      0.06      0.02      Open
  58                  -49.48      0.11      0.04      Open
  44                  -57.93      0.16      0.11      Open
  50                  -45.24      0.17      0.15      Open
  52                   69.36      0.19      0.15      Open
  56                   21.37      0.08      0.04      Open
  62                  175.46      0.24      0.15      Open
  46                  113.50      0.19      0.11      Open
  34                 -100.65      0.28      0.31      Open
  78                  141.27      0.19      0.10      Open
  80                 -118.10      0.25      0.21      Open


  Page 14                 Any Town Model. Initial model for ANN training
  Link Results at 6:00 Hrs: (continued)
  ----------------------------------------------------------------------
  Link                  Flow  VelocityUnit Headloss    Status
  ID                     CMH       m/s      m/km
  ----------------------------------------------------------------------
  8                   -62.54      0.17      0.13      Open
  74                   22.55      0.09      0.04      Open
  76                   -4.70      0.02      0.00      Open
  72                   -2.28      0.01      0.00      Open
  68                  -29.54      0.11      0.07      Open
  70                  -29.68      0.11      0.07      Open
  178                -440.11      0.94      2.46      Open
  54                    6.51      0.02      0.00      Open
  222                   0.00      0.00      0.00    Closed Pump
  111                1362.80      0.00    -70.10      Open Pump
  333                   0.00      0.00      0.00    Closed Pump
  
  Node Results at 7:00 Hrs:
  ----------------------------------------------------------------------
  Node                Demand      Head  Pressure   Quality
  ID                     CMH         m         m          
  ----------------------------------------------------------------------
  20                  136.27     72.77     66.67      0.00
  30                   54.51     71.47     56.23      0.00
  110                 136.27     70.61     55.37      0.00
  70                  136.27     71.11     55.87      0.00
  60                  136.27     71.11     55.87      0.00
  90                  272.55     70.42     55.18      0.00
  100                 136.27     70.59     55.35      0.00
  40                   54.51     70.56     55.32      0.00
  50                   54.51     70.65     55.41      0.00
  80                  136.27     70.59     55.35      0.00
  150                  54.51     70.59     34.01      0.00
  140                  54.51     70.74     46.35      0.00
  170                  54.51     70.18     33.61      0.00
  130                  54.51     70.20     33.62      0.00
  160                 218.04     70.26     33.68      0.00
  120                  54.51     70.26     33.68      0.00
  55                   27.25     70.59     46.21      0.00
  75                   27.25     70.60     46.22      0.00
  115                  27.25     70.60     46.22      0.00
  10                -1374.48      3.05      0.00      0.00 Reservoir
  65                 -139.89     71.11     71.11      0.00 Tank
  165                 251.53     70.23     70.23      0.00 Tank
  265                -563.25     70.86     70.86      0.00 Tank
  


  Page 15                 Any Town Model. Initial model for ANN training
  Link Results at 7:00 Hrs:
  ----------------------------------------------------------------------
  Link                  Flow  VelocityUnit Headloss    Status
  ID                     CMH       m/s      m/km
  ----------------------------------------------------------------------
  4                   448.79      0.43      0.35      Open
  30                  201.54      0.28      0.20      Open
  16                   12.11      0.18      0.38      Open
  14                   -6.24      0.01      0.00      Open
  12                   46.36      0.25      0.38      Open
  2                   512.18      0.49      0.45      Open
  6                   277.23      0.47      0.59      Open
  48                   11.30      0.04      0.01      Open
  24                  133.26      0.18      0.09      Open
  10                  399.31      0.38      0.29      Open
  32                   29.95      0.26      0.50      Open
  36                  -24.56      0.09      0.05      Open
  38                    6.62      0.06      0.03      Open
  18                 -186.80      0.32      0.28      Open
  20                   75.20      0.16      0.09      Open
  66                   -5.92      0.05      0.02      Open
  40                   32.40      0.12      0.08      Open
  28                   14.35      0.02      0.00      Open
  22                    5.62      0.09      0.09      Open
  26                    4.99      0.00      0.00      Open
  42                 -126.22      0.17      0.08      Open
  64                   45.75      0.17      0.15      Open
  60                   -8.76      0.03      0.01      Open
  58                  -42.79      0.09      0.03      Open
  44                  -75.45      0.21      0.18      Open
  50                  -51.97      0.20      0.19      Open
  52                   77.69      0.22      0.19      Open
  56                   20.47      0.08      0.03      Open
  62                  236.17      0.32      0.26      Open
  46                  146.08      0.25      0.18      Open
  34                  -99.26      0.28      0.30      Open
  78                  139.89      0.19      0.10      Open
  80                 -251.53      0.54      0.87      Open
  8                   -63.53      0.18      0.13      Open
  74                   19.49      0.07      0.03      Open
  76                   -7.77      0.03      0.01      Open
  72                   -3.72      0.01      0.00      Open
  68                  -30.97      0.12      0.07      Open
  70                  -31.30      0.12      0.07      Open
  178                -563.25      1.21      3.89      Open
  54                   -2.71      0.01      0.00      Open
  222                   0.00      0.00      0.00    Closed Pump
  111                1374.48      0.00    -69.72      Open Pump
  333                   0.00      0.00      0.00    Closed Pump
  


  Page 16                 Any Town Model. Initial model for ANN training
  Node Results at 8:00 Hrs:
  ----------------------------------------------------------------------
  Node                Demand      Head  Pressure   Quality
  ID                     CMH         m         m          
  ----------------------------------------------------------------------
  20                  136.27     69.66     63.57      0.00
  30                   54.51     69.83     54.59      0.00
  110                 136.27     69.53     54.29      0.00
  70                  136.27     69.68     54.44      0.00
  60                  136.27     70.62     55.38      0.00
  90                  272.55     69.53     54.29      0.00
  100                 136.27     69.68     54.44      0.00
  40                   54.51     69.46     54.22      0.00
  50                   54.51     69.64     54.40      0.00
  80                  136.27     69.83     54.59      0.00
  150                  54.51     69.81     33.23      0.00
  140                  54.51     70.26     45.87      0.00
  170                  54.51     69.59     33.02      0.00
  130                  54.51     69.60     33.02      0.00
  160                 218.04     69.78     33.21      0.00
  120                  54.51     69.53     32.96      0.00
  55                   27.25     69.68     45.29      0.00
  75                   27.25     69.92     45.54      0.00
  115                  27.25     69.98     45.59      0.00
  10                    0.00      3.05      0.00      0.00 Reservoir
  65                 -883.64     70.71     70.71      0.00 Tank
  165                -202.59     69.80     69.80      0.00 Tank
  265                -739.85     70.45     70.45      0.00 Tank
  
  Link Results at 8:00 Hrs:
  ----------------------------------------------------------------------
  Link                  Flow  VelocityUnit Headloss    Status
  ID                     CMH       m/s      m/km
  ----------------------------------------------------------------------
  4                  -150.60      0.14      0.05      Open
  30                 -308.94      0.42      0.43      Open
  16                   15.54      0.24      0.60      Open
  14                 -189.00      0.40      0.52      Open
  12                   20.57      0.11      0.08      Open
  2                   -45.80      0.04      0.01      Open
  6                    60.12      0.10      0.03      Open
  48                  -32.03      0.12      0.08      Open
  24                  125.79      0.17      0.08      Open
  10                   26.38      0.03      0.00      Open
  32                   18.45      0.16      0.20      Open
  36                  -36.06      0.14      0.10      Open
  38                  -13.02      0.11      0.11      Open
  18                 -233.89      0.40      0.43      Open
  20                  103.23      0.22      0.17      Open
  66                  -16.72      0.14      0.17      Open
  40                   57.59      0.22      0.23      Open
  28                   38.96      0.07      0.02      Open


  Page 17                 Any Town Model. Initial model for ANN training
  Link Results at 8:00 Hrs: (continued)
  ----------------------------------------------------------------------
  Link                  Flow  VelocityUnit Headloss    Status
  ID                     CMH       m/s      m/km
  ----------------------------------------------------------------------
  22                    7.42      0.11      0.15      Open
  26                  187.98      0.18      0.07      Open
  42                 -228.63      0.31      0.25      Open
  64                   50.52      0.19      0.18      Open
  60                   -3.99      0.02      0.00      Open
  58                  -79.01      0.17      0.10      Open
  44                  -17.68      0.05      0.01      Open
  50                   43.32      0.16      0.14      Open
  52                   -0.80      0.00      0.00      Open
  56                  -20.51      0.08      0.03      Open
  62                  234.64      0.32      0.26      Open
  46                  -79.74      0.13      0.06      Open
  34                  -45.36      0.13      0.07      Open
  78                  883.64      1.21      3.02      Open
  80                  202.59      0.43      0.59      Open
  8                   -40.01      0.11      0.06      Open
  74                  -15.47      0.06      0.02      Open
  76                  -42.72      0.16      0.13      Open
  72                  -19.05      0.07      0.03      Open
  68                  -46.30      0.18      0.15      Open
  70                  -50.93      0.19      0.18      Open
  178                -739.85      1.58      6.45      Open
  54                   34.80      0.13      0.09      Open
  222                   0.00      0.00      0.00    Closed Pump
  111                   0.00      0.00      0.00    Closed Pump
  333                   0.00      0.00      0.00    Closed Pump
  
  Node Results at 9:00 Hrs:
  ----------------------------------------------------------------------
  Node                Demand      Head  Pressure   Quality
  ID                     CMH         m         m          
  ----------------------------------------------------------------------
  20                  147.63     67.90     61.80      0.00
  30                   59.05     67.98     52.74      0.00
  110                 147.63     67.88     52.64      0.00
  70                  147.63     67.94     52.70      0.00
  60                  147.63     68.49     53.25      0.00
  90                  295.26     67.77     52.53      0.00
  100                 147.63     67.97     52.73      0.00
  40                   59.05     67.60     52.36      0.00
  50                   59.05     67.81     52.57      0.00
  80                  147.63     68.09     52.85      0.00
  150                  59.05     68.13     31.55      0.00
  140                  59.05     68.65     44.26      0.00
  170                  59.05     68.10     31.52      0.00
  130                  59.05     68.13     31.55      0.00
  160                 236.21     68.47     31.90      0.00


  Page 18                 Any Town Model. Initial model for ANN training
  Node Results at 9:00 Hrs: (continued)
  ----------------------------------------------------------------------
  Node                Demand      Head  Pressure   Quality
  ID                     CMH         m         m          
  ----------------------------------------------------------------------
  120                  59.05     67.94     31.36      0.00
  55                   29.53     67.88     43.50      0.00
  75                   29.53     68.22     43.83      0.00
  115                  29.53     68.29     43.91      0.00
  10                    0.00      3.05      0.00      0.00 Reservoir
  65                 -703.95     68.55     68.55      0.00 Tank
  165                -591.84     68.60     68.60      0.00 Tank
  265                -682.46     68.81     68.81      0.00 Tank
  
  Link Results at 9:00 Hrs:
  ----------------------------------------------------------------------
  Link                  Flow  VelocityUnit Headloss    Status
  ID                     CMH       m/s      m/km
  ----------------------------------------------------------------------
  4                  -101.96      0.10      0.02      Open
  30                 -242.39      0.33      0.28      Open
  16                   12.37      0.19      0.39      Open
  14                 -140.84      0.30      0.30      Open
  12                   21.91      0.12      0.09      Open
  2                   -69.18      0.07      0.01      Open
  6                    23.51      0.04      0.01      Open
  48                  -24.69      0.09      0.05      Open
  24                  146.05      0.20      0.11      Open
  10                  -77.77      0.07      0.01      Open
  32                   18.89      0.16      0.21      Open
  36                  -40.16      0.15      0.12      Open
  38                  -15.87      0.14      0.15      Open
  18                 -160.72      0.27      0.21      Open
  20                  106.41      0.23      0.18      Open
  66                  -19.62      0.17      0.23      Open
  40                   66.34      0.25      0.30      Open
  28                  -42.86      0.07      0.02      Open
  22                    8.51      0.13      0.20      Open
  26                  212.24      0.20      0.09      Open
  42                 -245.63      0.34      0.28      Open
  64                   45.48      0.17      0.15      Open
  60                  -13.57      0.05      0.02      Open
  58                 -109.73      0.23      0.19      Open
  44                   77.04      0.22      0.19      Open
  50                   69.06      0.26      0.32      Open
  52                  -30.37      0.08      0.03      Open
  56                  -37.10      0.14      0.10      Open
  62                  136.42      0.19      0.09      Open
  46                 -183.90      0.31      0.28      Open
  34                  -42.38      0.12      0.06      Open
  78                  703.95      0.96      1.98      Open
  80                  591.84      1.27      4.27      Open


  Page 19                 Any Town Model. Initial model for ANN training
  Link Results at 9:00 Hrs: (continued)
  ----------------------------------------------------------------------
  Link                  Flow  VelocityUnit Headloss    Status
  ID                     CMH       m/s      m/km
  ----------------------------------------------------------------------
  8                   -20.11      0.06      0.02      Open
  74                  -21.35      0.08      0.04      Open
  76                  -50.88      0.19      0.18      Open
  72                  -22.58      0.09      0.04      Open
  68                  -52.11      0.20      0.19      Open
  70                  -57.82      0.22      0.23      Open
  178                -682.46      1.46      5.55      Open
  54                   52.32      0.20      0.19      Open
  222                   0.00      0.00      0.00    Closed Pump
  111                   0.00      0.00      0.00    Closed Pump
  333                   0.00      0.00      0.00    Closed Pump
  
  Node Results at 10:00 Hrs:
  ----------------------------------------------------------------------
  Node                Demand      Head  Pressure   Quality
  ID                     CMH         m         m          
  ----------------------------------------------------------------------
  20                  147.63     74.52     68.42      0.00
  30                   59.05     69.31     54.07      0.00
  110                 147.63     68.24     53.00      0.00
  70                  147.63     68.46     53.22      0.00
  60                  147.63     66.72     51.48      0.00
  90                  295.26     66.76     51.52      0.00
  100                 147.63     67.18     51.94      0.00
  40                   59.05     67.31     52.07      0.00
  50                   59.05     67.33     52.09      0.00
  80                  147.63     66.75     51.51      0.00
  150                  59.05     66.98     30.40      0.00
  140                  59.05     66.98     42.59      0.00
  170                  59.05     66.72     30.15      0.00
  130                  59.05     66.84     30.27      0.00
  160                 236.21     66.89     30.32      0.00
  120                  59.05     67.16     30.58      0.00
  55                   29.53     67.00     42.61      0.00
  75                   29.53     66.93     42.55      0.00
  115                  29.53     66.92     42.53      0.00
  10                -2623.79      3.05      0.00      0.00 Reservoir
  65                  744.78     66.66     66.66      0.00 Tank
  165                 130.95     66.89     66.89      0.00 Tank
  265                -230.19     67.00     67.00      0.00 Tank
  


  Page 20                 Any Town Model. Initial model for ANN training
  Link Results at 10:00 Hrs:
  ----------------------------------------------------------------------
  Link                  Flow  VelocityUnit Headloss    Status
  ID                     CMH       m/s      m/km
  ----------------------------------------------------------------------
  4                   951.03      0.91      1.42      Open
  30                  585.95      0.80      1.41      Open
  16                   -2.35      0.04      0.02      Open
  14                  262.74      0.56      0.95      Open
  12                   75.53      0.41      0.93      Open
  2                  1031.77      0.98      1.66      Open
  6                   493.36      0.83      1.72      Open
  48                   94.57      0.36      0.58      Open
  24                  220.98      0.30      0.23      Open
  10                  646.90      0.62      0.70      Open
  32                   45.82      0.39      1.09      Open
  36                  -13.24      0.05      0.02      Open
  38                   23.52      0.20      0.32      Open
  18                   41.37      0.07      0.02      Open
  20                   -5.51      0.01      0.00      Open
  66                   12.46      0.11      0.10      Open
  40                   40.78      0.16      0.12      Open
  28                 -119.20      0.20      0.12      Open
  22                    6.61      0.10      0.12      Open
  26                 -237.60      0.23      0.11      Open
  42                   16.21      0.02      0.00      Open
  64                   30.00      0.11      0.07      Open
  60                  -29.05      0.11      0.07      Open
  58                  -39.22      0.08      0.03      Open
  44                  -36.53      0.10      0.05      Open
  50                 -107.56      0.41      0.74      Open
  52                  143.60      0.40      0.59      Open
  56                   48.89      0.19      0.17      Open
  62                   91.37      0.13      0.05      Open
  46                  135.27      0.23      0.16      Open
  34                 -159.17      0.45      0.72      Open
  78                 -744.78      1.02      2.20      Open
  80                 -130.95      0.28      0.26      Open
  8                  -101.03      0.28      0.31      Open
  74                   50.91      0.19      0.18      Open
  76                   21.38      0.08      0.04      Open
  72                    9.31      0.04      0.01      Open
  68                  -20.21      0.08      0.03      Open
  70                  -17.45      0.07      0.03      Open
  178                -230.19      0.49      0.74      Open
  54                  -35.66      0.14      0.10      Open
  222                1311.90      0.00    -71.47      Open Pump
  111                1311.90      0.00    -71.47      Open Pump
  333                   0.00      0.00      0.00    Closed Pump
  


  Page 21                 Any Town Model. Initial model for ANN training
  Node Results at 11:00 Hrs:
  ----------------------------------------------------------------------
  Node                Demand      Head  Pressure   Quality
  ID                     CMH         m         m          
  ----------------------------------------------------------------------
  20                  147.63     75.08     68.98      0.00
  30                   59.05     70.25     55.01      0.00
  110                 147.63     68.52     53.28      0.00
  70                  147.63     69.18     53.94      0.00
  60                  147.63     68.22     52.98      0.00
  90                  295.26     67.38     52.14      0.00
  100                 147.63     67.64     52.40      0.00
  40                   59.05     67.91     52.67      0.00
  50                   59.05     67.92     52.68      0.00
  80                  147.63     67.42     52.18      0.00
  150                  59.05     67.40     30.82      0.00
  140                  59.05     67.20     42.81      0.00
  170                  59.05     66.82     30.25      0.00
  130                  59.05     66.90     30.32      0.00
  160                 236.21     66.92     30.35      0.00
  120                  59.05     67.27     30.70      0.00
  55                   29.53     67.37     42.99      0.00
  75                   29.53     67.19     42.80      0.00
  115                  29.53     67.16     42.77      0.00
  10                -2582.06      3.05      0.00      0.00 Reservoir
  65                  306.53     68.21     68.21      0.00 Tank
  165                 385.01     66.86     66.86      0.00 Tank
  265                 -87.74     67.20     67.20      0.00 Tank
  
  Link Results at 11:00 Hrs:
  ----------------------------------------------------------------------
  Link                  Flow  VelocityUnit Headloss    Status
  ID                     CMH       m/s      m/km
  ----------------------------------------------------------------------
  4                   912.22      0.87      1.32      Open
  30                  514.14      0.70      1.11      Open
  16                   13.50      0.21      0.46      Open
  14                  190.16      0.41      0.52      Open
  12                   77.81      0.43      0.98      Open
  2                  1016.85      0.97      1.61      Open
  6                   505.36      0.86      1.79      Open
  48                   85.38      0.33      0.48      Open
  24                  168.41      0.23      0.14      Open
  10                  715.99      0.68      0.84      Open
  32                   49.96      0.43      1.28      Open
  36                   -9.10      0.03      0.01      Open
  38                   21.71      0.19      0.27      Open
  18                 -236.64      0.40      0.44      Open
  20                   34.01      0.07      0.02      Open
  66                   18.23      0.16      0.20      Open
  40                  -40.83      0.16      0.12      Open
  28                   35.87      0.06      0.01      Open


  Page 22                 Any Town Model. Initial model for ANN training
  Link Results at 11:00 Hrs: (continued)
  ----------------------------------------------------------------------
  Link                  Flow  VelocityUnit Headloss    Status
  ID                     CMH       m/s      m/km
  ----------------------------------------------------------------------
  22                    1.53      0.02      0.01      Open
  26                 -263.41      0.25      0.13      Open
  42                  147.02      0.20      0.11      Open
  64                   36.91      0.14      0.10      Open
  60                  -22.14      0.08      0.04      Open
  58                  -27.30      0.06      0.01      Open
  44                  -91.68      0.26      0.26      Open
  50                 -117.76      0.45      0.87      Open
  52                  154.59      0.43      0.68      Open
  56                   53.90      0.21      0.20      Open
  62                  175.52      0.24      0.15      Open
  46                  221.92      0.38      0.39      Open
  34                 -174.32      0.49      0.85      Open
  78                 -306.53      0.42      0.43      Open
  80                 -385.01      0.82      1.92      Open
  8                  -114.74      0.32      0.39      Open
  74                   66.24      0.25      0.30      Open
  76                   36.71      0.14      0.10      Open
  72                   13.85      0.05      0.02      Open
  68                  -15.68      0.06      0.02      Open
  70                   -6.66      0.03      0.00      Open
  178                 -87.74      0.19      0.12      Open
  54                  -41.64      0.16      0.13      Open
  222                1291.03      0.00    -72.03      Open Pump
  111                1291.03      0.00    -72.03      Open Pump
  333                   0.00      0.00      0.00    Closed Pump
  
  Node Results at 12:00 Hrs:
  ----------------------------------------------------------------------
  Node                Demand      Head  Pressure   Quality
  ID                     CMH         m         m          
  ----------------------------------------------------------------------
  20                  136.27     75.60     69.51      0.00
  30                   54.51     70.92     55.68      0.00
  110                 136.27     69.11     53.87      0.00
  70                  136.27     69.82     54.58      0.00
  60                  136.27     68.98     53.74      0.00
  90                  272.55     68.00     52.76      0.00
  100                 136.27     68.22     52.98      0.00
  40                   54.51     68.56     53.32      0.00
  50                   54.51     68.56     53.32      0.00
  80                  136.27     68.02     52.78      0.00
  150                  54.51     67.95     31.37      0.00
  140                  54.51     67.62     43.23      0.00
  170                  54.51     67.31     30.74      0.00
  130                  54.51     67.38     30.80      0.00
  160                 218.04     67.39     30.81      0.00


  Page 23                 Any Town Model. Initial model for ANN training
  Node Results at 12:00 Hrs: (continued)
  ----------------------------------------------------------------------
  Node                Demand      Head  Pressure   Quality
  ID                     CMH         m         m          
  ----------------------------------------------------------------------
  120                  54.51     67.81     31.23      0.00
  55                   27.25     67.90     43.52      0.00
  75                   27.25     67.62     43.24      0.00
  115                  27.25     67.59     43.21      0.00
  10                -2542.81      3.05      0.00      0.00 Reservoir
  65                  267.98     68.97     68.97      0.00 Tank
  165                 433.00     67.32     67.32      0.00 Tank
  265                  15.75     67.62     67.62      0.00 Tank
  
  Link Results at 12:00 Hrs:
  ----------------------------------------------------------------------
  Link                  Flow  VelocityUnit Headloss    Status
  ID                     CMH       m/s      m/km
  ----------------------------------------------------------------------
  4                   897.84      0.85      1.28      Open
  30                  501.59      0.69      1.06      Open
  16                   14.66      0.22      0.54      Open
  14                  177.46      0.38      0.46      Open
  12                   78.37      0.43      1.00      Open
  2                  1005.99      0.96      1.58      Open
  6                   502.72      0.85      1.78      Open
  48                   85.57      0.33      0.48      Open
  24                  156.63      0.21      0.12      Open
  10                  729.99      0.69      0.87      Open
  32                   50.16      0.43      1.29      Open
  36                   -4.35      0.02      0.00      Open
  38                   22.51      0.19      0.29      Open
  18                 -260.14      0.44      0.52      Open
  20                   25.79      0.06      0.01      Open
  66                   20.98      0.18      0.26      Open
  40                  -56.18      0.21      0.22      Open
  28                   64.41      0.11      0.04      Open
  22                   -2.90      0.04      0.03      Open
  26                 -281.35      0.27      0.15      Open
  42                  193.58      0.27      0.18      Open
  64                   33.32      0.13      0.08      Open
  60                  -21.19      0.08      0.04      Open
  58                  -17.77      0.04      0.01      Open
  44                 -100.58      0.28      0.31      Open
  50                 -122.60      0.47      0.94      Open
  52                  158.28      0.44      0.71      Open
  56                   57.93      0.22      0.23      Open
  62                  158.50      0.22      0.13      Open
  46                  241.29      0.41      0.46      Open
  34                 -175.46      0.49      0.86      Open
  78                 -267.98      0.37      0.33      Open
  80                 -433.00      0.93      2.39      Open


  Page 24                 Any Town Model. Initial model for ANN training
  Link Results at 12:00 Hrs: (continued)
  ----------------------------------------------------------------------
  Link                  Flow  VelocityUnit Headloss    Status
  ID                     CMH       m/s      m/km
  ----------------------------------------------------------------------
  8                  -116.11      0.32      0.40      Open
  74                   73.12      0.28      0.36      Open
  76                   45.86      0.17      0.15      Open
  72                   14.10      0.05      0.02      Open
  68                  -13.15      0.05      0.02      Open
  70                    4.51      0.02      0.00      Open
  178                  15.75      0.03      0.00      Open
  54                  -45.84      0.17      0.15      Open
  222                1271.41      0.00    -72.56      Open Pump
  111                1271.41      0.00    -72.56      Open Pump
  333                   0.00      0.00      0.00    Closed Pump
  
  Node Results at 13:00 Hrs:
  ----------------------------------------------------------------------
  Node                Demand      Head  Pressure   Quality
  ID                     CMH         m         m          
  ----------------------------------------------------------------------
  20                  136.27     76.06     69.97      0.00
  30                   54.51     71.52     56.28      0.00
  110                 136.27     69.70     54.46      0.00
  70                  136.27     70.43     55.19      0.00
  60                  136.27     69.68     54.44      0.00
  90                  272.55     68.62     53.38      0.00
  100                 136.27     68.84     53.60      0.00
  40                   54.51     69.16     53.92      0.00
  50                   54.51     69.16     53.92      0.00
  80                  136.27     68.65     53.41      0.00
  150                  54.51     68.57     31.99      0.00
  140                  54.51     68.21     43.83      0.00
  170                  54.51     67.94     31.36      0.00
  130                  54.51     68.01     31.44      0.00
  160                 218.04     68.03     31.45      0.00
  120                  54.51     68.43     31.85      0.00
  55                   27.25     68.50     44.11      0.00
  75                   27.25     68.22     43.83      0.00
  115                  27.25     68.18     43.80      0.00
  10                -2508.69      3.05      0.00      0.00 Reservoir
  65                  232.52     69.67     69.67      0.00 Tank
  165                 406.09     67.96     67.96      0.00 Tank
  265                  44.00     68.21     68.21      0.00 Tank
  


  Page 25                 Any Town Model. Initial model for ANN training
  Link Results at 13:00 Hrs:
  ----------------------------------------------------------------------
  Link                  Flow  VelocityUnit Headloss    Status
  ID                     CMH       m/s      m/km
  ----------------------------------------------------------------------
  4                   883.20      0.84      1.24      Open
  30                  487.55      0.67      1.00      Open
  16                   15.24      0.23      0.58      Open
  14                  166.68      0.36      0.41      Open
  12                   77.94      0.43      0.99      Open
  2                   992.02      0.94      1.54      Open
  6                   497.18      0.84      1.74      Open
  48                   84.05      0.32      0.47      Open
  24                  154.57      0.21      0.12      Open
  10                  726.81      0.69      0.87      Open
  32                   50.13      0.43      1.29      Open
  36                   -4.38      0.02      0.00      Open
  38                   21.92      0.19      0.28      Open
  18                 -270.20      0.46      0.56      Open
  20                   27.90      0.06      0.01      Open
  66                   21.09      0.18      0.26      Open
  40                  -58.76      0.22      0.24      Open
  28                   69.19      0.12      0.05      Open
  22                   -3.10      0.05      0.03      Open
  26                 -281.97      0.27      0.15      Open
  42                  201.29      0.28      0.20      Open
  64                   31.44      0.12      0.08      Open
  60                  -23.07      0.09      0.04      Open
  58                  -20.68      0.04      0.01      Open
  44                  -98.45      0.28      0.30      Open
  50                 -120.68      0.46      0.91      Open
  52                  156.18      0.44      0.69      Open
  56                   56.90      0.22      0.23      Open
  62                  142.86      0.20      0.10      Open
  46                  238.05      0.40      0.44      Open
  34                 -175.33      0.49      0.86      Open
  78                 -232.52      0.32      0.26      Open
  80                 -406.09      0.87      2.11      Open
  8                  -115.69      0.32      0.40      Open
  74                   73.43      0.28      0.36      Open
  76                   46.17      0.18      0.15      Open
  72                   14.15      0.05      0.02      Open
  68                  -13.10      0.05      0.01      Open
  70                    4.77      0.02      0.00      Open
  178                  44.00      0.09      0.02      Open
  54                  -44.77      0.17      0.15      Open
  222                1254.34      0.00    -73.01      Open Pump
  111                1254.34      0.00    -73.01      Open Pump
  333                   0.00      0.00      0.00    Closed Pump
  


  Page 26                 Any Town Model. Initial model for ANN training
  Node Results at 14:00 Hrs:
  ----------------------------------------------------------------------
  Node                Demand      Head  Pressure   Quality
  ID                     CMH         m         m          
  ----------------------------------------------------------------------
  20                  136.27     76.49     70.39      0.00
  30                   54.51     72.07     56.83      0.00
  110                 136.27     70.26     55.02      0.00
  70                  136.27     70.99     55.75      0.00
  60                  136.27     70.30     55.06      0.00
  90                  272.55     69.22     53.98      0.00
  100                 136.27     69.44     54.20      0.00
  40                   54.51     69.74     54.50      0.00
  50                   54.51     69.75     54.51      0.00
  80                  136.27     69.25     54.01      0.00
  150                  54.51     69.17     32.60      0.00
  140                  54.51     68.83     44.44      0.00
  170                  54.51     68.55     31.97      0.00
  130                  54.51     68.62     32.05      0.00
  160                 218.04     68.64     32.06      0.00
  120                  54.51     69.02     32.45      0.00
  55                   27.25     69.10     44.71      0.00
  75                   27.25     68.83     44.45      0.00
  115                  27.25     68.80     44.41      0.00
  10                -2476.84      3.05      0.00      0.00 Reservoir
  65                  214.27     70.29     70.29      0.00 Tank
  165                 398.76     68.58     68.58      0.00 Tank
  265                  37.73     68.83     68.83      0.00 Tank
  
  Link Results at 14:00 Hrs:
  ----------------------------------------------------------------------
  Link                  Flow  VelocityUnit Headloss    Status
  ID                     CMH       m/s      m/km
  ----------------------------------------------------------------------
  4                   870.40      0.83      1.21      Open
  30                  477.62      0.65      0.97      Open
  16                   15.38      0.23      0.59      Open
  14                  160.42      0.34      0.38      Open
  12                   77.16      0.42      0.97      Open
  2                   978.76      0.93      1.50      Open
  6                   491.41      0.83      1.70      Open
  48                   82.35      0.31      0.45      Open
  24                  152.90      0.21      0.12      Open
  10                  719.58      0.68      0.85      Open
  32                   49.72      0.43      1.27      Open
  36                   -4.79      0.02      0.00      Open
  38                   21.48      0.18      0.27      Open
  18                 -272.13      0.46      0.57      Open
  20                   30.09      0.06      0.02      Open
  66                   20.72      0.18      0.25      Open
  40                  -57.91      0.22      0.23      Open
  28                   69.32      0.12      0.05      Open


  Page 27                 Any Town Model. Initial model for ANN training
  Link Results at 14:00 Hrs: (continued)
  ----------------------------------------------------------------------
  Link                  Flow  VelocityUnit Headloss    Status
  ID                     CMH       m/s      m/km
  ----------------------------------------------------------------------
  22                   -2.98      0.05      0.03      Open
  26                 -277.40      0.26      0.15      Open
  42                  197.62      0.27      0.19      Open
  64                   31.63      0.12      0.08      Open
  60                  -22.88      0.09      0.04      Open
  58                  -21.62      0.05      0.01      Open
  44                  -97.58      0.27      0.29      Open
  50                 -118.76      0.45      0.88      Open
  52                  154.03      0.43      0.68      Open
  56                   55.76      0.21      0.22      Open
  62                  142.99      0.20      0.10      Open
  46                  235.34      0.40      0.44      Open
  34                 -173.87      0.49      0.85      Open
  78                 -214.27      0.29      0.22      Open
  80                 -398.76      0.85      2.05      Open
  8                  -114.68      0.32      0.39      Open
  74                   72.38      0.28      0.35      Open
  76                   45.12      0.17      0.15      Open
[...]
  30                   31.80     69.68     54.44      0.00
  110                  79.49     68.79     53.55      0.00
  70                   79.49     68.81     53.57      0.00
  60                   79.49     66.64     51.40      0.00
  90                  158.99     67.06     51.82      0.00
  100                  79.49     67.35     52.11      0.00
  40                   31.80     67.93     52.69      0.00
  50                   31.80     67.91     52.67      0.00
  80                   79.49     66.83     51.59      0.00
  150                  31.80     66.97     30.39      0.00
  140                  31.80     66.76     42.38      0.00
  170                  31.80     66.69     30.11      0.00
  130                  31.80     66.73     30.16      0.00
  160                 127.19     66.71     30.13      0.00


  Page 38                 Any Town Model. Initial model for ANN training
  Node Results at 21:00 Hrs: (continued)
  ----------------------------------------------------------------------
  Node                Demand      Head  Pressure   Quality
  ID                     CMH         m         m          
  ----------------------------------------------------------------------
  120                  31.80     67.39     30.82      0.00
  55                   15.90     67.25     42.86      0.00
  75                   15.90     66.83     42.44      0.00
  115                  15.90     66.76     42.38      0.00
  10                -2584.64      3.05      0.00      0.00 Reservoir
  65                  973.72     66.53     66.53      0.00 Tank
  165                 440.02     66.63     66.63      0.00 Tank
  265                 105.69     66.75     66.75      0.00 Tank
  
  Link Results at 21:00 Hrs:
  ----------------------------------------------------------------------
  Link                  Flow  VelocityUnit Headloss    Status
  ID                     CMH       m/s      m/km
  ----------------------------------------------------------------------
  4                   965.91      0.92      1.47      Open
  30                  639.14      0.88      1.66      Open
  16                   -9.16      0.14      0.23      Open
  14                  296.54      0.64      1.19      Open
  12                   76.89      0.42      0.96      Open
  2                  1047.05      1.00      1.70      Open
  6                   492.18      0.83      1.71      Open
  48                  111.62      0.42      0.79      Open
  24                  181.86      0.25      0.16      Open
  10                  696.13      0.66      0.80      Open
  32                   42.68      0.37      0.96      Open
  36                   10.88      0.04      0.01      Open
  38                   32.75      0.28      0.59      Open
  18                  108.36      0.18      0.10      Open
  20                  -86.64      0.19      0.12      Open
  66                   23.35      0.20      0.31      Open
  40                  -22.47      0.09      0.04      Open
  28                  -90.93      0.15      0.07      Open
  22                   -3.96      0.06      0.05      Open
  26                 -336.84      0.32      0.21      Open
  42                  151.50      0.21      0.12      Open
  64                   15.13      0.06      0.02      Open
  60                  -16.66      0.06      0.02      Open
  58                   24.76      0.05      0.01      Open
  44                  -66.58      0.19      0.14      Open
  50                 -136.18      0.52      1.14      Open
  52                  164.89      0.46      0.77      Open
  56                   73.22      0.28      0.36      Open
  62                   70.26      0.10      0.03      Open
  46                  209.56      0.35      0.35      Open
  34                 -150.28      0.42      0.65      Open
  78                 -973.72      1.33      3.62      Open
  80                 -440.02      0.94      2.46      Open


  Page 39                 Any Town Model. Initial model for ANN training
  Link Results at 21:00 Hrs: (continued)
  ----------------------------------------------------------------------
  Link                  Flow  VelocityUnit Headloss    Status
  ID                     CMH       m/s      m/km
  ----------------------------------------------------------------------
  8                  -102.01      0.29      0.32      Open
  74                   73.26      0.28      0.36      Open
  76                   57.36      0.22      0.23      Open
  72                   20.40      0.08      0.03      Open
  68                    4.50      0.02      0.00      Open
  70                   21.06      0.08      0.04      Open
  178                 105.69      0.23      0.18      Open
  54                  -59.87      0.23      0.25      Open
  222                   0.00      0.00      0.00    Closed Pump
  111                1292.32      0.00    -71.99      Open Pump
  333                1292.32      0.00    -71.99      Open Pump
  
  Node Results at 22:00 Hrs:
  ----------------------------------------------------------------------
  Node                Demand      Head  Pressure   Quality
  ID                     CMH         m         m          
  ----------------------------------------------------------------------
  20                   79.49     70.81     64.71      0.00
  30                   31.80     69.28     54.04      0.00
  110                  79.49     68.33     53.09      0.00
  70                   79.49     68.81     53.57      0.00
  60                   79.49     68.78     53.54      0.00
  90                  158.99     68.02     52.78      0.00
  100                  79.49     68.08     52.84      0.00
  40                   31.80     68.24     53.00      0.00
  50                   31.80     68.24     53.00      0.00
  80                   79.49     68.05     52.81      0.00
  150                  31.80     67.94     31.36      0.00
  140                  31.80     67.68     43.30      0.00
  170                  31.80     67.58     31.00      0.00
  130                  31.80     67.60     31.03      0.00
  160                 127.19     67.61     31.03      0.00
  120                  31.80     67.79     31.22      0.00
  55                   15.90     67.88     43.50      0.00
  75                   15.90     67.70     43.31      0.00
  115                  15.90     67.68     43.29      0.00
  10                -1434.12      3.05      0.00      0.00 Reservoir
  65                  -47.99     68.78     68.78      0.00 Tank
  165                 309.83     67.57     67.57      0.00 Tank
  265                 107.06     67.68     67.68      0.00 Tank
  


  Page 40                 Any Town Model. Initial model for ANN training
  Link Results at 22:00 Hrs:
  ----------------------------------------------------------------------
  Link                  Flow  VelocityUnit Headloss    Status
  ID                     CMH       m/s      m/km
  ----------------------------------------------------------------------
  4                   490.18      0.47      0.42      Open
  30                  240.37      0.33      0.27      Open
  16                   12.77      0.19      0.42      Open
  14                   29.38      0.06      0.02      Open
  12                   49.95      0.27      0.43      Open
  2                   565.97      0.54      0.54      Open
  6                   298.48      0.51      0.68      Open
  48                   43.68      0.17      0.14      Open
  24                   73.65      0.10      0.03      Open
  10                  480.23      0.46      0.40      Open
  32                   32.20      0.28      0.57      Open
  36                    0.40      0.00      0.00      Open
  38                   12.93      0.11      0.10      Open
  18                 -225.48      0.38      0.40      Open
  20                   26.45      0.06      0.01      Open
  66                   15.82      0.14      0.15      Open
  40                  -53.18      0.20      0.20      Open
  28                   79.28      0.13      0.06      Open
  22                   -3.82      0.06      0.04      Open
  26                 -193.84      0.18      0.07      Open
  42                  169.32      0.23      0.14      Open
  64                   18.56      0.07      0.03      Open
  60                  -13.23      0.05      0.02      Open
  58                   -7.97      0.02      0.00      Open
  44                  -75.84      0.21      0.18      Open
  50                  -76.91      0.29      0.40      Open
  52                   98.40      0.28      0.29      Open
  56                   37.06      0.14      0.10      Open
  62                   85.78      0.12      0.04      Open
  46                  176.93      0.30      0.26      Open
  34                 -112.73      0.32      0.38      Open
  78                   47.99      0.07      0.01      Open
  80                 -309.83      0.66      1.29      Open
  8                   -73.08      0.20      0.17      Open
  74                   52.59      0.20      0.20      Open
  76                   36.69      0.14      0.10      Open
  72                   11.07      0.04      0.01      Open
  68                   -4.83      0.02      0.00      Open
  70                    9.72      0.04      0.01      Open
  178                 107.06      0.23      0.18      Open
  54                  -29.54      0.11      0.07      Open
  222                   0.00      0.00      0.00    Closed Pump
  111                1434.12      0.00    -67.76      Open Pump
  333                   0.00      0.00      0.00    Closed Pump
  


  Page 41                 Any Town Model. Initial model for ANN training
  Node Results at 23:00 Hrs:
  ----------------------------------------------------------------------
  Node                Demand      Head  Pressure   Quality
  ID                     CMH         m         m          
  ----------------------------------------------------------------------
  20                   79.49     68.06     61.97      0.00
  30                   31.80     68.20     52.96      0.00
  110                  79.49     67.95     52.71      0.00
  70                   79.49     68.06     52.82      0.00
  60                   79.49     68.73     53.49      0.00
  90                  158.99     67.99     52.75      0.00
  100                  79.49     68.02     52.78      0.00
  40                   31.80     68.01     52.77      0.00
  50                   31.80     68.07     52.83      0.00
  80                   79.49     68.14     52.90      0.00
  150                  31.80     68.07     31.49      0.00
  140                  31.80     68.19     43.81      0.00
  170                  31.80     67.94     31.37      0.00
  130                  31.80     67.94     31.37      0.00
  160                 127.19     67.99     31.41      0.00
  120                  31.80     67.94     31.36      0.00
  55                   15.90     68.07     43.68      0.00
  75                   15.90     68.11     43.72      0.00
  115                  15.90     68.12     43.73      0.00
  10                    0.00      3.05      0.00      0.00 Reservoir
  65                 -698.73     68.79     68.79      0.00 Tank
  165                  31.63     67.99     67.99      0.00 Tank
  265                -398.12     68.26     68.26      0.00 Tank
  
  Link Results at 23:00 Hrs:
  ----------------------------------------------------------------------
  Link                  Flow  VelocityUnit Headloss    Status
  ID                     CMH       m/s      m/km
  ----------------------------------------------------------------------
  4                  -131.61      0.13      0.04      Open
  30                 -249.71      0.34      0.29      Open
  16                   12.58      0.19      0.40      Open
  14                 -156.70      0.34      0.36      Open
  12                   13.96      0.08      0.04      Open
  2                    -3.25      0.00      0.00      Open
  6                    55.36      0.09      0.03      Open
  48                  -21.99      0.08      0.04      Open
  24                   58.66      0.08      0.02      Open
  10                   97.23      0.09      0.02      Open
  32                   12.63      0.11      0.10      Open
  36                  -19.17      0.07      0.03      Open
  38                   -7.50      0.06      0.04      Open
  18                 -200.24      0.34      0.32      Open
  20                   69.98      0.15      0.08      Open
  66                   -7.08      0.06      0.03      Open
  40                   19.29      0.07      0.03      Open
  28                   62.56      0.11      0.04      Open


  Page 42                 Any Town Model. Initial model for ANN training
  Link Results at 23:00 Hrs: (continued)
  ----------------------------------------------------------------------
  Link                  Flow  VelocityUnit Headloss    Status
  ID                     CMH       m/s      m/km
  ----------------------------------------------------------------------
  22                    3.81      0.06      0.04      Open
  26                  105.95      0.10      0.02      Open
  42                 -113.89      0.16      0.07      Open
  64                   29.89      0.11      0.07      Open
  60                   -1.90      0.01      0.00      Open
  58                  -37.58      0.08      0.03      Open
  44                  -34.89      0.10      0.04      Open
  50                   15.43      0.06      0.02      Open
  52                   13.29      0.04      0.01      Open
  56                   -3.88      0.01      0.00      Open
  62                  148.54      0.20      0.11      Open
  46                   43.04      0.07      0.02      Open
  34                  -36.45      0.10      0.05      Open
  78                  698.73      0.96      1.96      Open
  80                  -31.63      0.07      0.02      Open
  8                   -37.22      0.10      0.05      Open
  74                    0.07      0.00      0.00      Open
  76                  -15.83      0.06      0.02      Open
  72                   -7.21      0.03      0.00      Open
  68                  -23.11      0.09      0.04      Open
  70                  -24.52      0.09      0.05      Open
  178                -398.12      0.85      2.05      Open
  54                   14.62      0.06      0.02      Open
  222                   0.00      0.00      0.00    Closed Pump
  111                   0.00      0.00      0.00    Closed Pump
  333                   0.00      0.00      0.00    Closed Pump
  
  Node Results at 24:00 Hrs:
  ----------------------------------------------------------------------
  Node                Demand      Head  Pressure   Quality
  ID                     CMH         m         m          
  ----------------------------------------------------------------------
  20                   79.49     69.97     63.87      0.00
  30                   31.80     68.22     52.98      0.00
  110                  79.49     67.79     52.55      0.00
  70                   79.49     67.93     52.69      0.00
  60                   79.49     67.31     52.07      0.00
  90                  158.99     67.37     52.13      0.00
  100                  79.49     67.50     52.26      0.00
  40                   31.80     67.62     52.38      0.00
  50                   31.80     67.63     52.39      0.00
  80                   79.49     67.37     52.13      0.00
  150                  31.80     67.47     30.90      0.00
  140                  31.80     67.57     43.19      0.00
  170                  31.80     67.24     30.67      0.00
  130                  31.80     67.24     30.66      0.00
  160                 127.19     67.24     30.66      0.00


  Page 43                 Any Town Model. Initial model for ANN training
  Node Results at 24:00 Hrs: (continued)
  ----------------------------------------------------------------------
  Node                Demand      Head  Pressure   Quality
  ID                     CMH         m         m          
  ----------------------------------------------------------------------
  120                  31.80     67.37     30.79      0.00
  55                   15.90     67.55     43.17      0.00
  75                   15.90     67.55     43.16      0.00
  115                  15.90     67.54     43.16      0.00
  10                -1459.52      3.05      0.00      0.00 Reservoir
  65                  462.60     67.28     67.28      0.00 Tank
  165                 348.65     67.19     67.19      0.00 Tank
  265                -416.95     67.64     67.64      0.00 Tank
  
  Link Results at 24:00 Hrs:
  ----------------------------------------------------------------------
  Link                  Flow  VelocityUnit Headloss    Status
  ID                     CMH       m/s      m/km
  ----------------------------------------------------------------------
  4                   527.87      0.50      0.48      Open
  30                  332.83      0.46      0.50      Open
  16                   -3.24      0.05      0.03      Open
  14                  150.29      0.32      0.34      Open
  12                   41.50      0.23      0.31      Open
  2                   573.37      0.55      0.56      Open
  6                   278.80      0.47      0.60      Open
  48                   46.86      0.18      0.16      Open
  24                  117.99      0.16      0.07      Open
  10                  358.64      0.34      0.23      Open
  32                   23.88      0.20      0.33      Open
  36                   -7.91      0.03      0.01      Open
  38                   15.43      0.13      0.14      Open
  18                   55.74      0.09      0.03      Open
  20                   -1.67      0.00      0.00      Open
  66                    4.80      0.04      0.02      Open
  40                   38.67      0.15      0.11      Open
  28                  -79.46      0.13      0.06      Open
  22                    4.42      0.07      0.06      Open
  26                  -79.39      0.08      0.01      Open
  42                  -99.00      0.14      0.05      Open
  64                   34.53      0.13      0.09      Open
  60                    2.73      0.01      0.00      Open
  58                    1.08      0.00      0.00      Open
  44                  -62.72      0.18      0.13      Open
  50                  -66.28      0.25      0.30      Open
  52                   86.17      0.24      0.23      Open
  56                   30.15      0.11      0.07      Open
  62                  192.91      0.26      0.18      Open
  46                  128.63      0.22      0.14      Open
  34                  -82.80      0.23      0.21      Open
  78                 -462.60      0.63      0.91      Open
  80                 -348.65      0.75      1.60      Open


  Page 44                 Any Town Model. Initial model for ANN training
  Link Results at 24:00 Hrs: (continued)
  ----------------------------------------------------------------------
  Link                  Flow  VelocityUnit Headloss    Status
  ID                     CMH       m/s      m/km
  ----------------------------------------------------------------------
  8                   -56.55      0.16      0.11      Open
  74                   22.86      0.09      0.04      Open
  76                    6.96      0.03      0.00      Open
  72                    3.21      0.01      0.00      Open
  68                  -12.68      0.05      0.01      Open
  70                  -12.15      0.05      0.01      Open
  178                -416.95      0.89      2.23      Open
  54                  -24.23      0.09      0.05      Open
  222                   0.00      0.00      0.00    Closed Pump
  111                1459.52      0.00    -66.92      Open Pump
  333                   0.00      0.00      0.00    Closed Pump
  
