
  ******************************************************************
  *                           E P A N E T                          *
  *                   Hydraulic and Water Quality                  *
  *                   Analysis for Pipe Networks                   *
  *                         Version 3.0.000                        *
  ******************************************************************

    speed pattern
    speed pattern
    speed pattern
    speed pattern
    speed pattern
    speed pattern
    speed pattern
    speed pattern
    speed pattern
    speed pattern
    speed pattern
    speed pattern
    speed pattern
    speed pattern
    speed pattern
    speed pattern
    speed pattern
    speed pattern